$ MSC.Nastran input file created on November  12, 2025 at 15:58:32 by
$ Patran 2024.2
$ Direct Text Input for Nastran System Cell Section
$
SOL 103
CEND
TITLE = BLADE SOL103
ECHO = NONE
$ Using Nastran default values for RESVEC
SUBCASE 1
   TITLE=BLADE SOL103
   METHOD = 1
   SPC = 2
BEGIN BULK
HDF5OUT PRCISION 32     CMPRMTHD LZ4     LEVEL   5
PARAM   PRTMAXIM YES
EIGRL    1       10.                     0                       MASS
$ Elements and Element Properties for region : pshell.101
PSHELL   101     1       .002
$ Pset: "pshell.101" will be imported as: "pshell.101"
CQUAD4   1       101     1       2       82      81      0.
CQUAD4   2       101     2       3       83      82      0.
CQUAD4   3       101     3       4       84      83      0.
CQUAD4   4       101     4       5       85      84      0.
CQUAD4   5       101     5       6       86      85      0.
CQUAD4   6       101     6       7       87      86      0.
CQUAD4   7       101     7       8       88      87      0.
CQUAD4   8       101     8       9       89      88      0.
CQUAD4   9       101     9       10      90      89      0.
CQUAD4   10      101     10      11      91      90      0.
CQUAD4   11      101     11      12      92      91      0.
CQUAD4   12      101     12      13      93      92      0.
CQUAD4   13      101     13      14      94      93      0.
CQUAD4   14      101     14      15      95      94      0.
CQUAD4   15      101     15      16      96      95      0.
CQUAD4   16      101     16      17      97      96      0.
CQUAD4   17      101     17      18      98      97      0.
CQUAD4   18      101     18      19      99      98      0.
CQUAD4   19      101     19      20      100     99      0.
CQUAD4   20      101     20      21      101     100     0.
$ ... 700 like lines cut
$ Elements and Element Properties for region : pshell.102
PSHELL   102     1       .002
$ Pset: "pshell.102" will be imported as: "pshell.102"
CQUAD4   721     102     721     722     802     801     0.
CQUAD4   722     102     722     723     803     802     0.
CQUAD4   723     102     723     724     804     803     0.
CQUAD4   724     102     724     725     805     804     0.
CQUAD4   725     102     725     726     806     805     0.
CQUAD4   726     102     726     727     807     806     0.
CQUAD4   727     102     727     728     808     807     0.
CQUAD4   728     102     728     729     809     808     0.
CQUAD4   729     102     729     730     810     809     0.
CQUAD4   730     102     730     731     811     810     0.
CQUAD4   731     102     731     732     812     811     0.
CQUAD4   732     102     732     733     813     812     0.
CQUAD4   733     102     733     734     814     813     0.
CQUAD4   734     102     734     735     815     814     0.
CQUAD4   735     102     735     736     816     815     0.
CQUAD4   736     102     736     737     817     816     0.
CQUAD4   737     102     737     738     818     817     0.
CQUAD4   738     102     738     739     819     818     0.
CQUAD4   739     102     739     740     820     819     0.
CQUAD4   740     102     740     741     821     820     0.
$ ... 620 like lines cut
$ Elements and Element Properties for region : pshell.103
PSHELL   103     1       .002
$ Pset: "pshell.103" will be imported as: "pshell.103"
CQUAD4   1361    103     1361    1362    1442    1441    0.
CQUAD4   1362    103     1362    1363    1443    1442    0.
CQUAD4   1363    103     1363    1364    1444    1443    0.
CQUAD4   1364    103     1364    1365    1445    1444    0.
CQUAD4   1365    103     1365    1366    1446    1445    0.
CQUAD4   1366    103     1366    1367    1447    1446    0.
CQUAD4   1367    103     1367    1368    1448    1447    0.
CQUAD4   1368    103     1368    1369    1449    1448    0.
CQUAD4   1369    103     1369    1370    1450    1449    0.
CQUAD4   1370    103     1370    1371    1451    1450    0.
CQUAD4   1371    103     1371    1372    1452    1451    0.
CQUAD4   1372    103     1372    1373    1453    1452    0.
CQUAD4   1373    103     1373    1374    1454    1453    0.
CQUAD4   1374    103     1374    1375    1455    1454    0.
CQUAD4   1375    103     1375    1376    1456    1455    0.
CQUAD4   1376    103     1376    1377    1457    1456    0.
CQUAD4   1377    103     1377    1378    1458    1457    0.
CQUAD4   1378    103     1378    1379    1459    1458    0.
CQUAD4   1379    103     1379    1380    1460    1459    0.
CQUAD4   1380    103     1380    1381    1461    1460    0.
$ ... 620 like lines cut
$ Elements and Element Properties for region : pshell.104
PSHELL   104     1       .002
$ Pset: "pshell.104" will be imported as: "pshell.104"
CQUAD4   2001    104     2001    2002    2082    2081    0.
CQUAD4   2002    104     2002    2003    2083    2082    0.
CQUAD4   2003    104     2003    2004    2084    2083    0.
CQUAD4   2004    104     2004    2005    2085    2084    0.
CQUAD4   2005    104     2005    2006    2086    2085    0.
CQUAD4   2006    104     2006    2007    2087    2086    0.
CQUAD4   2007    104     2007    2008    2088    2087    0.
CQUAD4   2008    104     2008    2009    2089    2088    0.
CQUAD4   2009    104     2009    2010    2090    2089    0.
CQUAD4   2010    104     2010    2011    2091    2090    0.
CQUAD4   2011    104     2011    2012    2092    2091    0.
CQUAD4   2012    104     2012    2013    2093    2092    0.
CQUAD4   2013    104     2013    2014    2094    2093    0.
CQUAD4   2014    104     2014    2015    2095    2094    0.
CQUAD4   2015    104     2015    2016    2096    2095    0.
CQUAD4   2016    104     2016    2017    2097    2096    0.
CQUAD4   2017    104     2017    2018    2098    2097    0.
CQUAD4   2018    104     2018    2019    2099    2098    0.
CQUAD4   2019    104     2019    2020    2100    2099    0.
CQUAD4   2020    104     2020    2021    2101    2100    0.
$ ... 620 like lines cut
$ Elements and Element Properties for region : pshell.105
PSHELL   105     1       .002
$ Pset: "pshell.105" will be imported as: "pshell.105"
CQUAD4   2641    105     2641    2642    2722    2721    0.
CQUAD4   2642    105     2642    2643    2723    2722    0.
CQUAD4   2643    105     2643    2644    2724    2723    0.
CQUAD4   2644    105     2644    2645    2725    2724    0.
CQUAD4   2645    105     2645    2646    2726    2725    0.
CQUAD4   2646    105     2646    2647    2727    2726    0.
CQUAD4   2647    105     2647    2648    2728    2727    0.
CQUAD4   2648    105     2648    2649    2729    2728    0.
CQUAD4   2649    105     2649    2650    2730    2729    0.
CQUAD4   2650    105     2650    2651    2731    2730    0.
CQUAD4   2651    105     2651    2652    2732    2731    0.
CQUAD4   2652    105     2652    2653    2733    2732    0.
CQUAD4   2653    105     2653    2654    2734    2733    0.
CQUAD4   2654    105     2654    2655    2735    2734    0.
CQUAD4   2655    105     2655    2656    2736    2735    0.
CQUAD4   2656    105     2656    2657    2737    2736    0.
CQUAD4   2657    105     2657    2658    2738    2737    0.
CQUAD4   2658    105     2658    2659    2739    2738    0.
CQUAD4   2659    105     2659    2660    2740    2739    0.
CQUAD4   2660    105     2660    2661    2741    2740    0.
$ ... 620 like lines cut
$ Elements and Element Properties for region : pshell.106
PSHELL   106     1       .002
$ Pset: "pshell.106" will be imported as: "pshell.106"
CQUAD4   3281    106     3281    3282    3362    3361    0.
CQUAD4   3282    106     3282    3283    3363    3362    0.
CQUAD4   3283    106     3283    3284    3364    3363    0.
CQUAD4   3284    106     3284    3285    3365    3364    0.
CQUAD4   3285    106     3285    3286    3366    3365    0.
CQUAD4   3286    106     3286    3287    3367    3366    0.
CQUAD4   3287    106     3287    3288    3368    3367    0.
CQUAD4   3288    106     3288    3289    3369    3368    0.
CQUAD4   3289    106     3289    3290    3370    3369    0.
CQUAD4   3290    106     3290    3291    3371    3370    0.
CQUAD4   3291    106     3291    3292    3372    3371    0.
CQUAD4   3292    106     3292    3293    3373    3372    0.
CQUAD4   3293    106     3293    3294    3374    3373    0.
CQUAD4   3294    106     3294    3295    3375    3374    0.
CQUAD4   3295    106     3295    3296    3376    3375    0.
CQUAD4   3296    106     3296    3297    3377    3376    0.
CQUAD4   3297    106     3297    3298    3378    3377    0.
CQUAD4   3298    106     3298    3299    3379    3378    0.
CQUAD4   3299    106     3299    3300    3380    3379    0.
CQUAD4   3300    106     3300    3301    3381    3380    0.
$ ... 620 like lines cut
$ Elements and Element Properties for region : pshell.207
PSHELL   207     2       .002
$ Pset: "pshell.207" will be imported as: "pshell.207"
CQUAD4   3921    207     4001    4002    4082    4081    0.
CQUAD4   3922    207     4002    4003    4083    4082    0.
CQUAD4   3923    207     4003    4004    4084    4083    0.
CQUAD4   3924    207     4004    4005    4085    4084    0.
CQUAD4   3925    207     4005    4006    4086    4085    0.
CQUAD4   3926    207     4006    4007    4087    4086    0.
CQUAD4   3927    207     4007    4008    4088    4087    0.
CQUAD4   3928    207     4008    4009    4089    4088    0.
CQUAD4   3929    207     4009    4010    4090    4089    0.
CQUAD4   3930    207     4010    4011    4091    4090    0.
CQUAD4   3931    207     4011    4012    4092    4091    0.
CQUAD4   3932    207     4012    4013    4093    4092    0.
CQUAD4   3933    207     4013    4014    4094    4093    0.
CQUAD4   3934    207     4014    4015    4095    4094    0.
CQUAD4   3935    207     4015    4016    4096    4095    0.
CQUAD4   3936    207     4016    4017    4097    4096    0.
CQUAD4   3937    207     4017    4018    4098    4097    0.
CQUAD4   3938    207     4018    4019    4099    4098    0.
CQUAD4   3939    207     4019    4020    4100    4099    0.
CQUAD4   3940    207     4020    4021    4101    4100    0.
$ ... 700 like lines cut
$ Elements and Element Properties for region : pshell.208
PSHELL   208     2       .002
$ Pset: "pshell.208" will be imported as: "pshell.208"
CQUAD4   4641    208     4721    4722    4802    4801    0.
CQUAD4   4642    208     4722    4723    4803    4802    0.
CQUAD4   4643    208     4723    4724    4804    4803    0.
CQUAD4   4644    208     4724    4725    4805    4804    0.
CQUAD4   4645    208     4725    4726    4806    4805    0.
CQUAD4   4646    208     4726    4727    4807    4806    0.
CQUAD4   4647    208     4727    4728    4808    4807    0.
CQUAD4   4648    208     4728    4729    4809    4808    0.
CQUAD4   4649    208     4729    4730    4810    4809    0.
CQUAD4   4650    208     4730    4731    4811    4810    0.
CQUAD4   4651    208     4731    4732    4812    4811    0.
CQUAD4   4652    208     4732    4733    4813    4812    0.
CQUAD4   4653    208     4733    4734    4814    4813    0.
CQUAD4   4654    208     4734    4735    4815    4814    0.
CQUAD4   4655    208     4735    4736    4816    4815    0.
CQUAD4   4656    208     4736    4737    4817    4816    0.
CQUAD4   4657    208     4737    4738    4818    4817    0.
CQUAD4   4658    208     4738    4739    4819    4818    0.
CQUAD4   4659    208     4739    4740    4820    4819    0.
CQUAD4   4660    208     4740    4741    4821    4820    0.
$ ... 620 like lines cut
$ Elements and Element Properties for region : pshell.209
PSHELL   209     2       .002
$ Pset: "pshell.209" will be imported as: "pshell.209"
CQUAD4   5281    209     5361    5362    5442    5441    0.
CQUAD4   5282    209     5362    5363    5443    5442    0.
CQUAD4   5283    209     5363    5364    5444    5443    0.
CQUAD4   5284    209     5364    5365    5445    5444    0.
CQUAD4   5285    209     5365    5366    5446    5445    0.
CQUAD4   5286    209     5366    5367    5447    5446    0.
CQUAD4   5287    209     5367    5368    5448    5447    0.
CQUAD4   5288    209     5368    5369    5449    5448    0.
CQUAD4   5289    209     5369    5370    5450    5449    0.
CQUAD4   5290    209     5370    5371    5451    5450    0.
CQUAD4   5291    209     5371    5372    5452    5451    0.
CQUAD4   5292    209     5372    5373    5453    5452    0.
CQUAD4   5293    209     5373    5374    5454    5453    0.
CQUAD4   5294    209     5374    5375    5455    5454    0.
CQUAD4   5295    209     5375    5376    5456    5455    0.
CQUAD4   5296    209     5376    5377    5457    5456    0.
CQUAD4   5297    209     5377    5378    5458    5457    0.
CQUAD4   5298    209     5378    5379    5459    5458    0.
CQUAD4   5299    209     5379    5380    5460    5459    0.
CQUAD4   5300    209     5380    5381    5461    5460    0.
$ ... 620 like lines cut
$ Elements and Element Properties for region : pshell.210
PSHELL   210     2       .002
$ Pset: "pshell.210" will be imported as: "pshell.210"
CQUAD4   5921    210     6001    6002    6082    6081    0.
CQUAD4   5922    210     6002    6003    6083    6082    0.
CQUAD4   5923    210     6003    6004    6084    6083    0.
CQUAD4   5924    210     6004    6005    6085    6084    0.
CQUAD4   5925    210     6005    6006    6086    6085    0.
CQUAD4   5926    210     6006    6007    6087    6086    0.
CQUAD4   5927    210     6007    6008    6088    6087    0.
CQUAD4   5928    210     6008    6009    6089    6088    0.
CQUAD4   5929    210     6009    6010    6090    6089    0.
CQUAD4   5930    210     6010    6011    6091    6090    0.
CQUAD4   5931    210     6011    6012    6092    6091    0.
CQUAD4   5932    210     6012    6013    6093    6092    0.
CQUAD4   5933    210     6013    6014    6094    6093    0.
CQUAD4   5934    210     6014    6015    6095    6094    0.
CQUAD4   5935    210     6015    6016    6096    6095    0.
CQUAD4   5936    210     6016    6017    6097    6096    0.
CQUAD4   5937    210     6017    6018    6098    6097    0.
CQUAD4   5938    210     6018    6019    6099    6098    0.
CQUAD4   5939    210     6019    6020    6100    6099    0.
CQUAD4   5940    210     6020    6021    6101    6100    0.
$ ... 620 like lines cut
$ Elements and Element Properties for region : pshell.211
PSHELL   211     2       .002
$ Pset: "pshell.211" will be imported as: "pshell.211"
CQUAD4   6561    211     6641    6642    6722    6721    0.
CQUAD4   6562    211     6642    6643    6723    6722    0.
CQUAD4   6563    211     6643    6644    6724    6723    0.
CQUAD4   6564    211     6644    6645    6725    6724    0.
CQUAD4   6565    211     6645    6646    6726    6725    0.
CQUAD4   6566    211     6646    6647    6727    6726    0.
CQUAD4   6567    211     6647    6648    6728    6727    0.
CQUAD4   6568    211     6648    6649    6729    6728    0.
CQUAD4   6569    211     6649    6650    6730    6729    0.
CQUAD4   6570    211     6650    6651    6731    6730    0.
CQUAD4   6571    211     6651    6652    6732    6731    0.
CQUAD4   6572    211     6652    6653    6733    6732    0.
CQUAD4   6573    211     6653    6654    6734    6733    0.
CQUAD4   6574    211     6654    6655    6735    6734    0.
CQUAD4   6575    211     6655    6656    6736    6735    0.
CQUAD4   6576    211     6656    6657    6737    6736    0.
CQUAD4   6577    211     6657    6658    6738    6737    0.
CQUAD4   6578    211     6658    6659    6739    6738    0.
CQUAD4   6579    211     6659    6660    6740    6739    0.
CQUAD4   6580    211     6660    6661    6741    6740    0.
$ ... 620 like lines cut
$ Elements and Element Properties for region : pshell.212
PSHELL   212     2       .002
$ Pset: "pshell.212" will be imported as: "pshell.212"
CQUAD4   7201    212     7281    7282    7362    7361    0.
CQUAD4   7202    212     7282    7283    7363    7362    0.
CQUAD4   7203    212     7283    7284    7364    7363    0.
CQUAD4   7204    212     7284    7285    7365    7364    0.
CQUAD4   7205    212     7285    7286    7366    7365    0.
CQUAD4   7206    212     7286    7287    7367    7366    0.
CQUAD4   7207    212     7287    7288    7368    7367    0.
CQUAD4   7208    212     7288    7289    7369    7368    0.
CQUAD4   7209    212     7289    7290    7370    7369    0.
CQUAD4   7210    212     7290    7291    7371    7370    0.
CQUAD4   7211    212     7291    7292    7372    7371    0.
CQUAD4   7212    212     7292    7293    7373    7372    0.
CQUAD4   7213    212     7293    7294    7374    7373    0.
CQUAD4   7214    212     7294    7295    7375    7374    0.
CQUAD4   7215    212     7295    7296    7376    7375    0.
CQUAD4   7216    212     7296    7297    7377    7376    0.
CQUAD4   7217    212     7297    7298    7378    7377    0.
CQUAD4   7218    212     7298    7299    7379    7378    0.
CQUAD4   7219    212     7299    7300    7380    7379    0.
CQUAD4   7220    212     7300    7301    7381    7380    0.
$ ... 620 like lines cut
$ Elements and Element Properties for region : pshell.313
PSHELL   313     3       .002
$ Pset: "pshell.313" will be imported as: "pshell.313"
CQUAD4   7841    313     8001    8002    8082    8081    0.
CQUAD4   7842    313     8002    8003    8083    8082    0.
CQUAD4   7843    313     8003    8004    8084    8083    0.
CQUAD4   7844    313     8004    8005    8085    8084    0.
CQUAD4   7845    313     8005    8006    8086    8085    0.
CQUAD4   7846    313     8006    8007    8087    8086    0.
CQUAD4   7847    313     8007    8008    8088    8087    0.
CQUAD4   7848    313     8008    8009    8089    8088    0.
CQUAD4   7849    313     8009    8010    8090    8089    0.
CQUAD4   7850    313     8010    8011    8091    8090    0.
CQUAD4   7851    313     8011    8012    8092    8091    0.
CQUAD4   7852    313     8012    8013    8093    8092    0.
CQUAD4   7853    313     8013    8014    8094    8093    0.
CQUAD4   7854    313     8014    8015    8095    8094    0.
CQUAD4   7855    313     8015    8016    8096    8095    0.
CQUAD4   7856    313     8016    8017    8097    8096    0.
CQUAD4   7857    313     8017    8018    8098    8097    0.
CQUAD4   7858    313     8018    8019    8099    8098    0.
CQUAD4   7859    313     8019    8020    8100    8099    0.
CQUAD4   7860    313     8020    8021    8101    8100    0.
$ ... 700 like lines cut
$ Elements and Element Properties for region : pshell.314
PSHELL   314     3       .002
$ Pset: "pshell.314" will be imported as: "pshell.314"
CQUAD4   8561    314     8721    8722    8802    8801    0.
CQUAD4   8562    314     8722    8723    8803    8802    0.
CQUAD4   8563    314     8723    8724    8804    8803    0.
CQUAD4   8564    314     8724    8725    8805    8804    0.
CQUAD4   8565    314     8725    8726    8806    8805    0.
CQUAD4   8566    314     8726    8727    8807    8806    0.
CQUAD4   8567    314     8727    8728    8808    8807    0.
CQUAD4   8568    314     8728    8729    8809    8808    0.
CQUAD4   8569    314     8729    8730    8810    8809    0.
CQUAD4   8570    314     8730    8731    8811    8810    0.
CQUAD4   8571    314     8731    8732    8812    8811    0.
CQUAD4   8572    314     8732    8733    8813    8812    0.
CQUAD4   8573    314     8733    8734    8814    8813    0.
CQUAD4   8574    314     8734    8735    8815    8814    0.
CQUAD4   8575    314     8735    8736    8816    8815    0.
CQUAD4   8576    314     8736    8737    8817    8816    0.
CQUAD4   8577    314     8737    8738    8818    8817    0.
CQUAD4   8578    314     8738    8739    8819    8818    0.
CQUAD4   8579    314     8739    8740    8820    8819    0.
CQUAD4   8580    314     8740    8741    8821    8820    0.
$ ... 620 like lines cut
$ Elements and Element Properties for region : pshell.315
PSHELL   315     3       .002
$ Pset: "pshell.315" will be imported as: "pshell.315"
CQUAD4   9201    315     9361    9362    9442    9441    0.
CQUAD4   9202    315     9362    9363    9443    9442    0.
CQUAD4   9203    315     9363    9364    9444    9443    0.
CQUAD4   9204    315     9364    9365    9445    9444    0.
CQUAD4   9205    315     9365    9366    9446    9445    0.
CQUAD4   9206    315     9366    9367    9447    9446    0.
CQUAD4   9207    315     9367    9368    9448    9447    0.
CQUAD4   9208    315     9368    9369    9449    9448    0.
CQUAD4   9209    315     9369    9370    9450    9449    0.
CQUAD4   9210    315     9370    9371    9451    9450    0.
CQUAD4   9211    315     9371    9372    9452    9451    0.
CQUAD4   9212    315     9372    9373    9453    9452    0.
CQUAD4   9213    315     9373    9374    9454    9453    0.
CQUAD4   9214    315     9374    9375    9455    9454    0.
CQUAD4   9215    315     9375    9376    9456    9455    0.
CQUAD4   9216    315     9376    9377    9457    9456    0.
CQUAD4   9217    315     9377    9378    9458    9457    0.
CQUAD4   9218    315     9378    9379    9459    9458    0.
CQUAD4   9219    315     9379    9380    9460    9459    0.
CQUAD4   9220    315     9380    9381    9461    9460    0.
$ ... 620 like lines cut
$ Elements and Element Properties for region : pshell.316
PSHELL   316     3       .002
$ Pset: "pshell.316" will be imported as: "pshell.316"
CQUAD4   9841    316     10001   10002   10082   10081   0.
CQUAD4   9842    316     10002   10003   10083   10082   0.
CQUAD4   9843    316     10003   10004   10084   10083   0.
CQUAD4   9844    316     10004   10005   10085   10084   0.
CQUAD4   9845    316     10005   10006   10086   10085   0.
CQUAD4   9846    316     10006   10007   10087   10086   0.
CQUAD4   9847    316     10007   10008   10088   10087   0.
CQUAD4   9848    316     10008   10009   10089   10088   0.
CQUAD4   9849    316     10009   10010   10090   10089   0.
CQUAD4   9850    316     10010   10011   10091   10090   0.
CQUAD4   9851    316     10011   10012   10092   10091   0.
CQUAD4   9852    316     10012   10013   10093   10092   0.
CQUAD4   9853    316     10013   10014   10094   10093   0.
CQUAD4   9854    316     10014   10015   10095   10094   0.
CQUAD4   9855    316     10015   10016   10096   10095   0.
CQUAD4   9856    316     10016   10017   10097   10096   0.
CQUAD4   9857    316     10017   10018   10098   10097   0.
CQUAD4   9858    316     10018   10019   10099   10098   0.
CQUAD4   9859    316     10019   10020   10100   10099   0.
CQUAD4   9860    316     10020   10021   10101   10100   0.
$ ... 620 like lines cut
$ Elements and Element Properties for region : pshell.317
PSHELL   317     3       .002
$ Pset: "pshell.317" will be imported as: "pshell.317"
CQUAD4   10481   317     10641   10642   10722   10721   0.
CQUAD4   10482   317     10642   10643   10723   10722   0.
CQUAD4   10483   317     10643   10644   10724   10723   0.
CQUAD4   10484   317     10644   10645   10725   10724   0.
CQUAD4   10485   317     10645   10646   10726   10725   0.
CQUAD4   10486   317     10646   10647   10727   10726   0.
CQUAD4   10487   317     10647   10648   10728   10727   0.
CQUAD4   10488   317     10648   10649   10729   10728   0.
CQUAD4   10489   317     10649   10650   10730   10729   0.
CQUAD4   10490   317     10650   10651   10731   10730   0.
CQUAD4   10491   317     10651   10652   10732   10731   0.
CQUAD4   10492   317     10652   10653   10733   10732   0.
CQUAD4   10493   317     10653   10654   10734   10733   0.
CQUAD4   10494   317     10654   10655   10735   10734   0.
CQUAD4   10495   317     10655   10656   10736   10735   0.
CQUAD4   10496   317     10656   10657   10737   10736   0.
CQUAD4   10497   317     10657   10658   10738   10737   0.
CQUAD4   10498   317     10658   10659   10739   10738   0.
CQUAD4   10499   317     10659   10660   10740   10739   0.
CQUAD4   10500   317     10660   10661   10741   10740   0.
$ ... 620 like lines cut
$ Elements and Element Properties for region : pshell.318
PSHELL   318     3       .002
$ Pset: "pshell.318" will be imported as: "pshell.318"
CQUAD4   11121   318     11281   11282   11362   11361   0.
CQUAD4   11122   318     11282   11283   11363   11362   0.
CQUAD4   11123   318     11283   11284   11364   11363   0.
CQUAD4   11124   318     11284   11285   11365   11364   0.
CQUAD4   11125   318     11285   11286   11366   11365   0.
CQUAD4   11126   318     11286   11287   11367   11366   0.
CQUAD4   11127   318     11287   11288   11368   11367   0.
CQUAD4   11128   318     11288   11289   11369   11368   0.
CQUAD4   11129   318     11289   11290   11370   11369   0.
CQUAD4   11130   318     11290   11291   11371   11370   0.
CQUAD4   11131   318     11291   11292   11372   11371   0.
CQUAD4   11132   318     11292   11293   11373   11372   0.
CQUAD4   11133   318     11293   11294   11374   11373   0.
CQUAD4   11134   318     11294   11295   11375   11374   0.
CQUAD4   11135   318     11295   11296   11376   11375   0.
CQUAD4   11136   318     11296   11297   11377   11376   0.
CQUAD4   11137   318     11297   11298   11378   11377   0.
CQUAD4   11138   318     11298   11299   11379   11378   0.
CQUAD4   11139   318     11299   11300   11380   11379   0.
CQUAD4   11140   318     11300   11301   11381   11380   0.
$ ... 620 like lines cut
$ Elements and Element Properties for region : pshell.419
PSHELL   419     4       .002
$ Pset: "pshell.419" will be imported as: "pshell.419"
CQUAD4   11761   419     12001   12002   12082   12081   0.
CQUAD4   11762   419     12002   12003   12083   12082   0.
CQUAD4   11763   419     12003   12004   12084   12083   0.
CQUAD4   11764   419     12004   12005   12085   12084   0.
CQUAD4   11765   419     12005   12006   12086   12085   0.
CQUAD4   11766   419     12006   12007   12087   12086   0.
CQUAD4   11767   419     12007   12008   12088   12087   0.
CQUAD4   11768   419     12008   12009   12089   12088   0.
CQUAD4   11769   419     12009   12010   12090   12089   0.
CQUAD4   11770   419     12010   12011   12091   12090   0.
CQUAD4   11771   419     12011   12012   12092   12091   0.
CQUAD4   11772   419     12012   12013   12093   12092   0.
CQUAD4   11773   419     12013   12014   12094   12093   0.
CQUAD4   11774   419     12014   12015   12095   12094   0.
CQUAD4   11775   419     12015   12016   12096   12095   0.
CQUAD4   11776   419     12016   12017   12097   12096   0.
CQUAD4   11777   419     12017   12018   12098   12097   0.
CQUAD4   11778   419     12018   12019   12099   12098   0.
CQUAD4   11779   419     12019   12020   12100   12099   0.
CQUAD4   11780   419     12020   12021   12101   12100   0.
$ ... 700 like lines cut
$ Elements and Element Properties for region : pshell.420
PSHELL   420     4       .002
$ Pset: "pshell.420" will be imported as: "pshell.420"
CQUAD4   12481   420     12721   12722   12802   12801   0.
CQUAD4   12482   420     12722   12723   12803   12802   0.
CQUAD4   12483   420     12723   12724   12804   12803   0.
CQUAD4   12484   420     12724   12725   12805   12804   0.
CQUAD4   12485   420     12725   12726   12806   12805   0.
CQUAD4   12486   420     12726   12727   12807   12806   0.
CQUAD4   12487   420     12727   12728   12808   12807   0.
CQUAD4   12488   420     12728   12729   12809   12808   0.
CQUAD4   12489   420     12729   12730   12810   12809   0.
CQUAD4   12490   420     12730   12731   12811   12810   0.
CQUAD4   12491   420     12731   12732   12812   12811   0.
CQUAD4   12492   420     12732   12733   12813   12812   0.
CQUAD4   12493   420     12733   12734   12814   12813   0.
CQUAD4   12494   420     12734   12735   12815   12814   0.
CQUAD4   12495   420     12735   12736   12816   12815   0.
CQUAD4   12496   420     12736   12737   12817   12816   0.
CQUAD4   12497   420     12737   12738   12818   12817   0.
CQUAD4   12498   420     12738   12739   12819   12818   0.
CQUAD4   12499   420     12739   12740   12820   12819   0.
CQUAD4   12500   420     12740   12741   12821   12820   0.
$ ... 620 like lines cut
$ Elements and Element Properties for region : pshell.421
PSHELL   421     4       .002
$ Pset: "pshell.421" will be imported as: "pshell.421"
CQUAD4   13121   421     13361   13362   13442   13441   0.
CQUAD4   13122   421     13362   13363   13443   13442   0.
CQUAD4   13123   421     13363   13364   13444   13443   0.
CQUAD4   13124   421     13364   13365   13445   13444   0.
CQUAD4   13125   421     13365   13366   13446   13445   0.
CQUAD4   13126   421     13366   13367   13447   13446   0.
CQUAD4   13127   421     13367   13368   13448   13447   0.
CQUAD4   13128   421     13368   13369   13449   13448   0.
CQUAD4   13129   421     13369   13370   13450   13449   0.
CQUAD4   13130   421     13370   13371   13451   13450   0.
CQUAD4   13131   421     13371   13372   13452   13451   0.
CQUAD4   13132   421     13372   13373   13453   13452   0.
CQUAD4   13133   421     13373   13374   13454   13453   0.
CQUAD4   13134   421     13374   13375   13455   13454   0.
CQUAD4   13135   421     13375   13376   13456   13455   0.
CQUAD4   13136   421     13376   13377   13457   13456   0.
CQUAD4   13137   421     13377   13378   13458   13457   0.
CQUAD4   13138   421     13378   13379   13459   13458   0.
CQUAD4   13139   421     13379   13380   13460   13459   0.
CQUAD4   13140   421     13380   13381   13461   13460   0.
$ ... 620 like lines cut
$ Elements and Element Properties for region : pshell.422
PSHELL   422     4       .002
$ Pset: "pshell.422" will be imported as: "pshell.422"
CQUAD4   13761   422     14001   14002   14082   14081   0.
CQUAD4   13762   422     14002   14003   14083   14082   0.
CQUAD4   13763   422     14003   14004   14084   14083   0.
CQUAD4   13764   422     14004   14005   14085   14084   0.
CQUAD4   13765   422     14005   14006   14086   14085   0.
CQUAD4   13766   422     14006   14007   14087   14086   0.
CQUAD4   13767   422     14007   14008   14088   14087   0.
CQUAD4   13768   422     14008   14009   14089   14088   0.
CQUAD4   13769   422     14009   14010   14090   14089   0.
CQUAD4   13770   422     14010   14011   14091   14090   0.
CQUAD4   13771   422     14011   14012   14092   14091   0.
CQUAD4   13772   422     14012   14013   14093   14092   0.
CQUAD4   13773   422     14013   14014   14094   14093   0.
CQUAD4   13774   422     14014   14015   14095   14094   0.
CQUAD4   13775   422     14015   14016   14096   14095   0.
CQUAD4   13776   422     14016   14017   14097   14096   0.
CQUAD4   13777   422     14017   14018   14098   14097   0.
CQUAD4   13778   422     14018   14019   14099   14098   0.
CQUAD4   13779   422     14019   14020   14100   14099   0.
CQUAD4   13780   422     14020   14021   14101   14100   0.
$ ... 620 like lines cut
$ Elements and Element Properties for region : pshell.423
PSHELL   423     4       .002
$ Pset: "pshell.423" will be imported as: "pshell.423"
CQUAD4   14401   423     14641   14642   14722   14721   0.
CQUAD4   14402   423     14642   14643   14723   14722   0.
CQUAD4   14403   423     14643   14644   14724   14723   0.
CQUAD4   14404   423     14644   14645   14725   14724   0.
CQUAD4   14405   423     14645   14646   14726   14725   0.
CQUAD4   14406   423     14646   14647   14727   14726   0.
CQUAD4   14407   423     14647   14648   14728   14727   0.
CQUAD4   14408   423     14648   14649   14729   14728   0.
CQUAD4   14409   423     14649   14650   14730   14729   0.
CQUAD4   14410   423     14650   14651   14731   14730   0.
CQUAD4   14411   423     14651   14652   14732   14731   0.
CQUAD4   14412   423     14652   14653   14733   14732   0.
CQUAD4   14413   423     14653   14654   14734   14733   0.
CQUAD4   14414   423     14654   14655   14735   14734   0.
CQUAD4   14415   423     14655   14656   14736   14735   0.
CQUAD4   14416   423     14656   14657   14737   14736   0.
CQUAD4   14417   423     14657   14658   14738   14737   0.
CQUAD4   14418   423     14658   14659   14739   14738   0.
CQUAD4   14419   423     14659   14660   14740   14739   0.
CQUAD4   14420   423     14660   14661   14741   14740   0.
$ ... 620 like lines cut
$ Elements and Element Properties for region : pshell.424
PSHELL   424     4       .002
$ Pset: "pshell.424" will be imported as: "pshell.424"
CQUAD4   15041   424     15281   15282   15362   15361   0.
CQUAD4   15042   424     15282   15283   15363   15362   0.
CQUAD4   15043   424     15283   15284   15364   15363   0.
CQUAD4   15044   424     15284   15285   15365   15364   0.
CQUAD4   15045   424     15285   15286   15366   15365   0.
CQUAD4   15046   424     15286   15287   15367   15366   0.
CQUAD4   15047   424     15287   15288   15368   15367   0.
CQUAD4   15048   424     15288   15289   15369   15368   0.
CQUAD4   15049   424     15289   15290   15370   15369   0.
CQUAD4   15050   424     15290   15291   15371   15370   0.
CQUAD4   15051   424     15291   15292   15372   15371   0.
CQUAD4   15052   424     15292   15293   15373   15372   0.
CQUAD4   15053   424     15293   15294   15374   15373   0.
CQUAD4   15054   424     15294   15295   15375   15374   0.
CQUAD4   15055   424     15295   15296   15376   15375   0.
CQUAD4   15056   424     15296   15297   15377   15376   0.
CQUAD4   15057   424     15297   15298   15378   15377   0.
CQUAD4   15058   424     15298   15299   15379   15378   0.
CQUAD4   15059   424     15299   15300   15380   15379   0.
CQUAD4   15060   424     15300   15301   15381   15380   0.
$ ... 620 like lines cut
$ Referenced Material Records
$ Material Record : mat1.1
$ Description of Material :
MAT1     1       35.             .3      1200.
$ Material Record : mat1.2
$ Description of Material :
MAT1     2       35.             .3      1200.
$ Material Record : mat1.3
$ Description of Material :
MAT1     3       35.             .3      1200.
$ Material Record : mat1.4
$ Description of Material :
MAT1*    4               3.5000001+10    1.3461539+10    .3
*        1200.
$ Nodes of the Entire Model
GRID     1               .0269   .01787  0.
GRID     2               .02546  .01839  0.
GRID     3               .02398  .01879  0.
GRID     4               .02248  .01907  0.
GRID     5               .02095  .01924  0.
GRID     6               .01942  .01928  0.
GRID     7               .01789  .01921  0.
GRID     8               .01638  .01902  0.
GRID     9               .01488  .0187   0.
GRID     10              .01341  .01827  0.
GRID     11              .01198  .01773  0.
GRID     12              .01059  .01707  0.
GRID     13              .00926  .01631  0.
GRID     14              .008    .01545  0.
GRID     15              .00681  .01449  0.
GRID     16              .00569  .01344  0.
GRID     17              .00466  .01231  0.
GRID     18              .00373  .0111   0.
GRID     19              .00289  .00981  0.
GRID     20              .00215  .00847  0.
$ ... 11980 like lines cut
GRID*    12001                          .026899550639464.017874578625324
*        0.
GRID*    12002                           .02545728430526.018388333742839
*        0.
GRID*    12003                          .023980326428171.018791611925413
*        0.
GRID*    12004                          .022475570183055.019073939818848
*        0.
GRID*    12005                          .020953669774922.019240771157962
*        0.
GRID*    12006                          .019423305250916.019284709246832
*        0.
GRID*    12007                          .017894074262683.019210931338668
*        0.
GRID*    12008                          .016375621161369.019015469294061
*        0.
GRID*    12009                          .014876863168285.018702898105602
*        0.
GRID*    12010                          .013407544758486.018272796513771
*        0.
GRID*    12011                           .01197630198566.017729187733103
*        0.
GRID*    12012                          .010592138557734.017074993500911
*        0.
GRID*    12013                          .009263781819213.016313784535705
*        0.
GRID*    12014                           .00799869449416.015451550390543
*        0.
GRID*    12015                          .006806066786525.014491540678287
*        0.
GRID*    12016                          .005691093989092.013442370035945
*        0.
GRID*    12017                          .004663671437666.012307292462973
*        0.
GRID*    12018                          .003726121545476.011096932679254
*        0.
GRID*    12019                          .002889286967506.009814851388432
*        0.
GRID*    12020                          .002152189825547.008472940958273
*        0.
$ ... 7960 like lines cut
$ Loads for Load Case : Untitled.SC1.r3
SPCADD   2       4
$ Displacement Constraints of Load Set : spc1.4
SPC1     4       123456  12001   THRU    12080
$ Referenced Coordinate Frames
ENDDATA af917d2c
