$ MSC.Nastran input file created on November  12, 2025 at 13:03:14 by
$ Patran 2024.2
$ Linear Static Analysis, Database
$ Direct Text Input for Bulk Data
$ Elements and Element Properties for region : pshell.101
PSHELL   101     1       .002
$ Pset: "pshell.101" will be imported as: "pshell.101"
CQUAD4   1       101     1       2       82      81      0.
CQUAD4   2       101     2       3       83      82      0.
CQUAD4   3       101     3       4       84      83      0.
CQUAD4   4       101     4       5       85      84      0.
CQUAD4   5       101     5       6       86      85      0.
CQUAD4   6       101     6       7       87      86      0.
CQUAD4   7       101     7       8       88      87      0.
CQUAD4   8       101     8       9       89      88      0.
CQUAD4   9       101     9       10      90      89      0.
CQUAD4   10      101     10      11      91      90      0.
CQUAD4   11      101     11      12      92      91      0.
CQUAD4   12      101     12      13      93      92      0.
CQUAD4   13      101     13      14      94      93      0.
CQUAD4   14      101     14      15      95      94      0.
CQUAD4   15      101     15      16      96      95      0.
CQUAD4   16      101     16      17      97      96      0.
CQUAD4   17      101     17      18      98      97      0.
CQUAD4   18      101     18      19      99      98      0.
CQUAD4   19      101     19      20      100     99      0.
CQUAD4   20      101     20      21      101     100     0.
$ ... 700 like lines cut
$ Elements and Element Properties for region : pshell.102
PSHELL   102     1       .002
$ Pset: "pshell.102" will be imported as: "pshell.102"
CQUAD4   721     102     721     722     802     801     0.
CQUAD4   722     102     722     723     803     802     0.
CQUAD4   723     102     723     724     804     803     0.
CQUAD4   724     102     724     725     805     804     0.
CQUAD4   725     102     725     726     806     805     0.
CQUAD4   726     102     726     727     807     806     0.
CQUAD4   727     102     727     728     808     807     0.
CQUAD4   728     102     728     729     809     808     0.
CQUAD4   729     102     729     730     810     809     0.
CQUAD4   730     102     730     731     811     810     0.
CQUAD4   731     102     731     732     812     811     0.
CQUAD4   732     102     732     733     813     812     0.
CQUAD4   733     102     733     734     814     813     0.
CQUAD4   734     102     734     735     815     814     0.
CQUAD4   735     102     735     736     816     815     0.
CQUAD4   736     102     736     737     817     816     0.
CQUAD4   737     102     737     738     818     817     0.
CQUAD4   738     102     738     739     819     818     0.
CQUAD4   739     102     739     740     820     819     0.
CQUAD4   740     102     740     741     821     820     0.
$ ... 620 like lines cut
$ Elements and Element Properties for region : pshell.103
PSHELL   103     1       .002
$ Pset: "pshell.103" will be imported as: "pshell.103"
CQUAD4   1361    103     1361    1362    1442    1441    0.
CQUAD4   1362    103     1362    1363    1443    1442    0.
CQUAD4   1363    103     1363    1364    1444    1443    0.
CQUAD4   1364    103     1364    1365    1445    1444    0.
CQUAD4   1365    103     1365    1366    1446    1445    0.
CQUAD4   1366    103     1366    1367    1447    1446    0.
CQUAD4   1367    103     1367    1368    1448    1447    0.
CQUAD4   1368    103     1368    1369    1449    1448    0.
CQUAD4   1369    103     1369    1370    1450    1449    0.
CQUAD4   1370    103     1370    1371    1451    1450    0.
CQUAD4   1371    103     1371    1372    1452    1451    0.
CQUAD4   1372    103     1372    1373    1453    1452    0.
CQUAD4   1373    103     1373    1374    1454    1453    0.
CQUAD4   1374    103     1374    1375    1455    1454    0.
CQUAD4   1375    103     1375    1376    1456    1455    0.
CQUAD4   1376    103     1376    1377    1457    1456    0.
CQUAD4   1377    103     1377    1378    1458    1457    0.
CQUAD4   1378    103     1378    1379    1459    1458    0.
CQUAD4   1379    103     1379    1380    1460    1459    0.
CQUAD4   1380    103     1380    1381    1461    1460    0.
$ ... 620 like lines cut
$ Elements and Element Properties for region : pshell.104
PSHELL   104     1       .002
$ Pset: "pshell.104" will be imported as: "pshell.104"
CQUAD4   2001    104     2001    2002    2082    2081    0.
CQUAD4   2002    104     2002    2003    2083    2082    0.
CQUAD4   2003    104     2003    2004    2084    2083    0.
CQUAD4   2004    104     2004    2005    2085    2084    0.
CQUAD4   2005    104     2005    2006    2086    2085    0.
CQUAD4   2006    104     2006    2007    2087    2086    0.
CQUAD4   2007    104     2007    2008    2088    2087    0.
CQUAD4   2008    104     2008    2009    2089    2088    0.
CQUAD4   2009    104     2009    2010    2090    2089    0.
CQUAD4   2010    104     2010    2011    2091    2090    0.
CQUAD4   2011    104     2011    2012    2092    2091    0.
CQUAD4   2012    104     2012    2013    2093    2092    0.
CQUAD4   2013    104     2013    2014    2094    2093    0.
CQUAD4   2014    104     2014    2015    2095    2094    0.
CQUAD4   2015    104     2015    2016    2096    2095    0.
CQUAD4   2016    104     2016    2017    2097    2096    0.
CQUAD4   2017    104     2017    2018    2098    2097    0.
CQUAD4   2018    104     2018    2019    2099    2098    0.
CQUAD4   2019    104     2019    2020    2100    2099    0.
CQUAD4   2020    104     2020    2021    2101    2100    0.
$ ... 620 like lines cut
$ Elements and Element Properties for region : pshell.105
PSHELL   105     1       .002
$ Pset: "pshell.105" will be imported as: "pshell.105"
CQUAD4   2641    105     2641    2642    2722    2721    0.
CQUAD4   2642    105     2642    2643    2723    2722    0.
CQUAD4   2643    105     2643    2644    2724    2723    0.
CQUAD4   2644    105     2644    2645    2725    2724    0.
CQUAD4   2645    105     2645    2646    2726    2725    0.
CQUAD4   2646    105     2646    2647    2727    2726    0.
CQUAD4   2647    105     2647    2648    2728    2727    0.
CQUAD4   2648    105     2648    2649    2729    2728    0.
CQUAD4   2649    105     2649    2650    2730    2729    0.
CQUAD4   2650    105     2650    2651    2731    2730    0.
CQUAD4   2651    105     2651    2652    2732    2731    0.
CQUAD4   2652    105     2652    2653    2733    2732    0.
CQUAD4   2653    105     2653    2654    2734    2733    0.
CQUAD4   2654    105     2654    2655    2735    2734    0.
CQUAD4   2655    105     2655    2656    2736    2735    0.
CQUAD4   2656    105     2656    2657    2737    2736    0.
CQUAD4   2657    105     2657    2658    2738    2737    0.
CQUAD4   2658    105     2658    2659    2739    2738    0.
CQUAD4   2659    105     2659    2660    2740    2739    0.
CQUAD4   2660    105     2660    2661    2741    2740    0.
$ ... 620 like lines cut
$ Elements and Element Properties for region : pshell.106
PSHELL   106     1       .002
$ Pset: "pshell.106" will be imported as: "pshell.106"
CQUAD4   3281    106     3281    3282    3362    3361    0.
CQUAD4   3282    106     3282    3283    3363    3362    0.
CQUAD4   3283    106     3283    3284    3364    3363    0.
CQUAD4   3284    106     3284    3285    3365    3364    0.
CQUAD4   3285    106     3285    3286    3366    3365    0.
CQUAD4   3286    106     3286    3287    3367    3366    0.
CQUAD4   3287    106     3287    3288    3368    3367    0.
CQUAD4   3288    106     3288    3289    3369    3368    0.
CQUAD4   3289    106     3289    3290    3370    3369    0.
CQUAD4   3290    106     3290    3291    3371    3370    0.
CQUAD4   3291    106     3291    3292    3372    3371    0.
CQUAD4   3292    106     3292    3293    3373    3372    0.
CQUAD4   3293    106     3293    3294    3374    3373    0.
CQUAD4   3294    106     3294    3295    3375    3374    0.
CQUAD4   3295    106     3295    3296    3376    3375    0.
CQUAD4   3296    106     3296    3297    3377    3376    0.
CQUAD4   3297    106     3297    3298    3378    3377    0.
CQUAD4   3298    106     3298    3299    3379    3378    0.
CQUAD4   3299    106     3299    3300    3380    3379    0.
CQUAD4   3300    106     3300    3301    3381    3380    0.
$ ... 620 like lines cut
$ Elements and Element Properties for region : pshell.207
PSHELL   207     2       .002
$ Pset: "pshell.207" will be imported as: "pshell.207"
CQUAD4   3921    207     4001    4002    4082    4081    0.
CQUAD4   3922    207     4002    4003    4083    4082    0.
CQUAD4   3923    207     4003    4004    4084    4083    0.
CQUAD4   3924    207     4004    4005    4085    4084    0.
CQUAD4   3925    207     4005    4006    4086    4085    0.
CQUAD4   3926    207     4006    4007    4087    4086    0.
CQUAD4   3927    207     4007    4008    4088    4087    0.
CQUAD4   3928    207     4008    4009    4089    4088    0.
CQUAD4   3929    207     4009    4010    4090    4089    0.
CQUAD4   3930    207     4010    4011    4091    4090    0.
CQUAD4   3931    207     4011    4012    4092    4091    0.
CQUAD4   3932    207     4012    4013    4093    4092    0.
CQUAD4   3933    207     4013    4014    4094    4093    0.
CQUAD4   3934    207     4014    4015    4095    4094    0.
CQUAD4   3935    207     4015    4016    4096    4095    0.
CQUAD4   3936    207     4016    4017    4097    4096    0.
CQUAD4   3937    207     4017    4018    4098    4097    0.
CQUAD4   3938    207     4018    4019    4099    4098    0.
CQUAD4   3939    207     4019    4020    4100    4099    0.
CQUAD4   3940    207     4020    4021    4101    4100    0.
$ ... 700 like lines cut
$ Elements and Element Properties for region : pshell.208
PSHELL   208     2       .002
$ Pset: "pshell.208" will be imported as: "pshell.208"
CQUAD4   4641    208     4721    4722    4802    4801    0.
CQUAD4   4642    208     4722    4723    4803    4802    0.
CQUAD4   4643    208     4723    4724    4804    4803    0.
CQUAD4   4644    208     4724    4725    4805    4804    0.
CQUAD4   4645    208     4725    4726    4806    4805    0.
CQUAD4   4646    208     4726    4727    4807    4806    0.
CQUAD4   4647    208     4727    4728    4808    4807    0.
CQUAD4   4648    208     4728    4729    4809    4808    0.
CQUAD4   4649    208     4729    4730    4810    4809    0.
CQUAD4   4650    208     4730    4731    4811    4810    0.
CQUAD4   4651    208     4731    4732    4812    4811    0.
CQUAD4   4652    208     4732    4733    4813    4812    0.
CQUAD4   4653    208     4733    4734    4814    4813    0.
CQUAD4   4654    208     4734    4735    4815    4814    0.
CQUAD4   4655    208     4735    4736    4816    4815    0.
CQUAD4   4656    208     4736    4737    4817    4816    0.
CQUAD4   4657    208     4737    4738    4818    4817    0.
CQUAD4   4658    208     4738    4739    4819    4818    0.
CQUAD4   4659    208     4739    4740    4820    4819    0.
CQUAD4   4660    208     4740    4741    4821    4820    0.
$ ... 620 like lines cut
$ Elements and Element Properties for region : pshell.209
PSHELL   209     2       .002
$ Pset: "pshell.209" will be imported as: "pshell.209"
CQUAD4   5281    209     5361    5362    5442    5441    0.
CQUAD4   5282    209     5362    5363    5443    5442    0.
CQUAD4   5283    209     5363    5364    5444    5443    0.
CQUAD4   5284    209     5364    5365    5445    5444    0.
CQUAD4   5285    209     5365    5366    5446    5445    0.
CQUAD4   5286    209     5366    5367    5447    5446    0.
CQUAD4   5287    209     5367    5368    5448    5447    0.
CQUAD4   5288    209     5368    5369    5449    5448    0.
CQUAD4   5289    209     5369    5370    5450    5449    0.
CQUAD4   5290    209     5370    5371    5451    5450    0.
CQUAD4   5291    209     5371    5372    5452    5451    0.
CQUAD4   5292    209     5372    5373    5453    5452    0.
CQUAD4   5293    209     5373    5374    5454    5453    0.
CQUAD4   5294    209     5374    5375    5455    5454    0.
CQUAD4   5295    209     5375    5376    5456    5455    0.
CQUAD4   5296    209     5376    5377    5457    5456    0.
CQUAD4   5297    209     5377    5378    5458    5457    0.
CQUAD4   5298    209     5378    5379    5459    5458    0.
CQUAD4   5299    209     5379    5380    5460    5459    0.
CQUAD4   5300    209     5380    5381    5461    5460    0.
$ ... 620 like lines cut
$ Elements and Element Properties for region : pshell.210
PSHELL   210     2       .002
$ Pset: "pshell.210" will be imported as: "pshell.210"
CQUAD4   5921    210     6001    6002    6082    6081    0.
CQUAD4   5922    210     6002    6003    6083    6082    0.
CQUAD4   5923    210     6003    6004    6084    6083    0.
CQUAD4   5924    210     6004    6005    6085    6084    0.
CQUAD4   5925    210     6005    6006    6086    6085    0.
CQUAD4   5926    210     6006    6007    6087    6086    0.
CQUAD4   5927    210     6007    6008    6088    6087    0.
CQUAD4   5928    210     6008    6009    6089    6088    0.
CQUAD4   5929    210     6009    6010    6090    6089    0.
CQUAD4   5930    210     6010    6011    6091    6090    0.
CQUAD4   5931    210     6011    6012    6092    6091    0.
CQUAD4   5932    210     6012    6013    6093    6092    0.
CQUAD4   5933    210     6013    6014    6094    6093    0.
CQUAD4   5934    210     6014    6015    6095    6094    0.
CQUAD4   5935    210     6015    6016    6096    6095    0.
CQUAD4   5936    210     6016    6017    6097    6096    0.
CQUAD4   5937    210     6017    6018    6098    6097    0.
CQUAD4   5938    210     6018    6019    6099    6098    0.
CQUAD4   5939    210     6019    6020    6100    6099    0.
CQUAD4   5940    210     6020    6021    6101    6100    0.
$ ... 620 like lines cut
$ Elements and Element Properties for region : pshell.211
PSHELL   211     2       .002
$ Pset: "pshell.211" will be imported as: "pshell.211"
CQUAD4   6561    211     6641    6642    6722    6721    0.
CQUAD4   6562    211     6642    6643    6723    6722    0.
CQUAD4   6563    211     6643    6644    6724    6723    0.
CQUAD4   6564    211     6644    6645    6725    6724    0.
CQUAD4   6565    211     6645    6646    6726    6725    0.
CQUAD4   6566    211     6646    6647    6727    6726    0.
CQUAD4   6567    211     6647    6648    6728    6727    0.
CQUAD4   6568    211     6648    6649    6729    6728    0.
CQUAD4   6569    211     6649    6650    6730    6729    0.
CQUAD4   6570    211     6650    6651    6731    6730    0.
CQUAD4   6571    211     6651    6652    6732    6731    0.
CQUAD4   6572    211     6652    6653    6733    6732    0.
CQUAD4   6573    211     6653    6654    6734    6733    0.
CQUAD4   6574    211     6654    6655    6735    6734    0.
CQUAD4   6575    211     6655    6656    6736    6735    0.
CQUAD4   6576    211     6656    6657    6737    6736    0.
CQUAD4   6577    211     6657    6658    6738    6737    0.
CQUAD4   6578    211     6658    6659    6739    6738    0.
CQUAD4   6579    211     6659    6660    6740    6739    0.
CQUAD4   6580    211     6660    6661    6741    6740    0.
$ ... 620 like lines cut
$ Elements and Element Properties for region : pshell.212
PSHELL   212     2       .002
$ Pset: "pshell.212" will be imported as: "pshell.212"
CQUAD4   7201    212     7281    7282    7362    7361    0.
CQUAD4   7202    212     7282    7283    7363    7362    0.
CQUAD4   7203    212     7283    7284    7364    7363    0.
CQUAD4   7204    212     7284    7285    7365    7364    0.
CQUAD4   7205    212     7285    7286    7366    7365    0.
CQUAD4   7206    212     7286    7287    7367    7366    0.
CQUAD4   7207    212     7287    7288    7368    7367    0.
CQUAD4   7208    212     7288    7289    7369    7368    0.
CQUAD4   7209    212     7289    7290    7370    7369    0.
CQUAD4   7210    212     7290    7291    7371    7370    0.
CQUAD4   7211    212     7291    7292    7372    7371    0.
CQUAD4   7212    212     7292    7293    7373    7372    0.
CQUAD4   7213    212     7293    7294    7374    7373    0.
CQUAD4   7214    212     7294    7295    7375    7374    0.
CQUAD4   7215    212     7295    7296    7376    7375    0.
CQUAD4   7216    212     7296    7297    7377    7376    0.
CQUAD4   7217    212     7297    7298    7378    7377    0.
CQUAD4   7218    212     7298    7299    7379    7378    0.
CQUAD4   7219    212     7299    7300    7380    7379    0.
CQUAD4   7220    212     7300    7301    7381    7380    0.
$ ... 620 like lines cut
$ Referenced Material Records
$ Material Record : mat1.1
$ Description of Material :
MAT1     1       35.             .3      1200.
$ Material Record : mat1.2
$ Description of Material :
MAT1     2       35.             .3      1200.
$ Nodes of the Entire Model
GRID     1               .0269   .01787  0.
GRID     2               .02546  .01839  0.
GRID     3               .02398  .01879  0.
GRID     4               .02248  .01907  0.
GRID     5               .02095  .01924  0.
GRID     6               .01942  .01928  0.
GRID     7               .01789  .01921  0.
GRID     8               .01638  .01902  0.
GRID     9               .01488  .0187   0.
GRID     10              .01341  .01827  0.
GRID     11              .01198  .01773  0.
GRID     12              .01059  .01707  0.
GRID     13              .00926  .01631  0.
GRID     14              .008    .01545  0.
GRID     15              .00681  .01449  0.
GRID     16              .00569  .01344  0.
GRID     17              .00466  .01231  0.
GRID     18              .00373  .0111   0.
GRID     19              .00289  .00981  0.
GRID     20              .00215  .00847  0.
$ ... 7980 like lines cut
$ Loads for Load Case : Default
$ Referenced Coordinate Frames
